$# LS-DYNA Keyword file created by LS-PrePost(R) V4.8.1 - 30Oct2020
$# Created on Jan-27-2023 (15:23:36)
*KEYWORD
*CONTROL_ACCURACY
         0         2         0         0
*CONTROL_BULK_VISCOSITY
       1.5      0.06        -1         0         0
*CONTROL_HOURGLASS
         8       0.1
*CONTROL_MPP_IO_NOBEAMOUT
*CONTROL_MPP_IO_NODUMP
*CONTROL_SHELL
      30.0         1        -1         4         2         2         1         1
       1.0         0         0         1         0
         0         0         0         0         2       0.0       0.0         0
         0         1         0         0         0         0       1.0         0
*CONTROL_SOLUTION
         0         0         1      1001         0         1         0
*CONTROL_TERMINATION
       1.5         0       0.0       0.01.000000E8         0
*DATABASE_ELOUT
1.00000E-1         3         0         1         0        16         0         0
*DATABASE_BINARY_D3PLOT
      1.0          0         0         0         0
*DATABASE_EXTENT_BINARY
         5         0        -5         1         1         1         2         2
         0         0         0         4         1         1         1         0
         0         0       0.0         0         0         0ALL                 
         0         0         0         0         0
*DATABASE_HISTORY_SHELL_SET
   4700000         0         0         0         0         0         0         0
*DATABASE_HISTORY_SHELL
   1002198         0         0         0         0         0         0         0
*CONTACT_AUTOMATIC_SINGLE_SURFACE_ID
         1Global Contact
         0         0         0         2         0         0         0         0
       0.2       0.0       0.0       0.0      20.0         0       0.01.00000E20
       1.0       1.0       0.0       0.0       1.0       1.0       1.0       1.0
         1       0.0         0       0.0       0.0         0         0         0
*CONTACT_TIED_SHELL_EDGE_TO_SURFACE_BEAM_OFFSET_ID
        20Tied Contact
         1         2         4         3         0         0         0         0
       0.0       0.0       0.0       0.0      20.0         0       0.0       0.0
       0.0       0.0       2.0       2.0       0.0       0.0       0.0       0.0
*SET_NODE_LIST_TITLE
Hat Tied Nodes
         1       0.0       0.0       0.0       0.0MECH
   1000001   1000002   1000003   1000004   1000005   1000006   1000007   1000008
   1000009   1000010   1000011   1000012   1000013   1000014   1000015   1000016
   1000017   1000018   1000019   1000020   1000021   1000022   1000023   1000024
   1000025   1000026   1000027   1000028   1000029   1000030   1000031   1000032
   1000033   1000034   1000035   1000036   1000037   1000038   1000039   1000040
   1000041   1000042   1000043   1000044   1000045   1000046   1000047   1000048
   1000049   1000050   1000051   1000052   1000053   1000054   1000055   1000056
   1000057   1000058   1000059   1000060   1000061   1000062   1000063   1000064
   1000065   1000066   1000067   1000068   1000069   1000070   1000071   1000072
   1000073   1000074   1000075   1000076   1000077   1000078   1000079   1000080
   1000081   1000082   1000083   1000084   1000085   1000086   1000087   1000088
   1000089   1000090   1000091   1000092   1000093   1000094   1000095   1000096
   1000097   1000098   1000099   1000100   1000101   1000102   1000103   1000104
   1000105   1000106   1000107   1000108   1000109   1000110   1000111   1000112
   1000113   1000114   1000115   1000116   1000117   1000118   1000119   1000120
   1000121   1000122   1000123   1000124   1000125   1000126   1000127   1000128
   1000129   1000130   1000131   1000132   1000133   1000134   1000135   1000136
   1000137   1000138   1000139   1000140   1000141   1000142   1000143   1000144
   1000145   1000146   1000147   1000148   1000149   1000150   1000151   1000152
   1000153   1000154   1000155   1000156   1000157   1000158   1000159   1000160
$ ... 182 like lines cut
*PART_CONTACT
Profile
         1         1        81         0         0         0         0         0
       0.0       0.0       0.0       0.0       2.0       0.0       0.0
*SECTION_SHELL_TITLE
sheets
         1        16     0.833         5       1.0         0         0         1
       1.0       1.0       1.0       1.0       0.0       0.0       0.0         0
*MAT_PLASTICITY_WITH_DAMAGE
        817.85000E-6      70.0       0.3       0.0       0.0       0.5       0.0
       0.0       0.0       110         0       1.5       0.0         0         0
       0.0       0.0       0.0       0.0       0.0       0.0       0.0       0.0
       0.0       0.0       0.0       0.0       0.0       0.0       0.0       0.0
*PART_CONTACT
Sheet
         2         1        81         0         0         0         0         0
       0.0       0.0       0.0       0.0       2.0       0.0       0.0
*PART
Support1
         7         2         2         0         0         0         0         0
*SECTION_SOLID_TITLE
Supports and Impactor
         2         1         0                                       0          
*MAT_RIGID_TITLE
Rigid Support
         27.85000E-6     210.0       0.3       0.0       0.0       0.0          
       1.0         7         7
       0.0       0.0       0.0       0.0       0.0       0.0
*PART
Impactor
         9         2         3         0         0         0         0         0
*MAT_RIGID_TITLE
Ridig Impactor
         37.85000E-6     210.0       0.3       0.0       0.0       0.0          
       0.0         0         0
       0.0       0.0       0.0       0.0       0.0       0.0
*PART
Support2
        15         2         2         0         0         0         0         0
*PART_MOVE
       9             0.0             0.0            30.0       0       0
*INITIAL_VELOCITY_RIGID_BODY
         9       0.0       0.0     -20.0       0.0       0.0       0.0         0
*DEFINE_TABLE
       110
                 0.0       111
                 5.0       112
*DEFINE_CURVE
       111         0       1.0       1.0       0.0       0.0         0         0
                 0.0                 0.4
               0.003                0.42
                0.01                 0.5
                0.02                 0.6
                0.05                0.65
                0.07                 0.7
                0.08                0.71
                0.09                0.72
                 0.1                0.73
*DEFINE_CURVE
       112         0       1.0       1.2       0.0       0.0         0         0
                 0.0                 0.4
               0.003                0.42
                0.01                 0.5
                0.02                 0.6
                0.05                0.65
                0.07                 0.7
                0.08                0.71
                0.09                0.72
                 0.1                0.73
*SET_SHELL_LIST_GENERATE_TITLE
History Shell Elements
   4700000       0.0       0.0       0.0       0.0
   4700000   4799999         0         0         0         0         0         0
*ELEMENT_SOLID
  200000       7  201254  203268  203269  201255  202774  202774  202775  202775
  200001       7  201255  203269  203270  201256  202775  202775  202776  202776
  200002       7  201256  203270  203271  201257  202776  202776  202777  202777
  200003       7  201257  203271  203272  201258  202777  202777  202778  202778
  200004       7  201258  203272  203273  201259  202778  202778  202779  202779
  200005       7  201259  203273  203274  201260  202779  202779  202780  202780
  200006       7  201260  203274  203275  201261  202780  202780  202781  202781
  200007       7  201261  203275  203276  201262  202781  202781  202782  202782
  200008       7  201262  203276  203277  201263  202782  202782  202783  202783
  200009       7  201263  203277  203278  201264  202783  202783  202784  202784
  200010       7  201264  203278  203279  201265  202784  202784  202785  202785
  200011       7  201265  203279  203280  201266  202785  202785  202786  202786
  200012       7  201266  203280  203281  201267  202786  202786  202787  202787
  200013       7  201267  203281  203282  201268  202787  202787  202788  202788
  200014       7  201268  203282  203283  201269  202788  202788  202789  202789
  200015       7  201269  203283  203284  201270  202789  202789  202790  202790
  200016       7  201270  203284  203285  201271  202790  202790  202791  202791
  200017       7  201271  203285  203286  201272  202791  202791  202792  202792
  200018       7  201272  203286  203287  201273  202792  202792  202793  202793
  200019       7  201273  203287  203288  201274  202793  202793  202794  202794
$ ... 9748 like lines cut
*ELEMENT_SHELL
 1000001       1 1000002 1000010 1000215 1000008       0       0       0       0
 1000002       1 1000108 1000009 1000110 1000216       0       0       0       0
 1000003       1 1000214 1000001 1000003 1000217       0       0       0       0
 1000004       1 1000010 1000011 1000218 1000215       0       0       0       0
 1000005       1 1000107 1000108 1000216 1000219       0       0       0       0
 1000006       1 1000213 1000214 1000217 1000220       0       0       0       0
 1000007       1 1000011 1000012 1000221 1000218       0       0       0       0
 1000008       1 1000106 1000107 1000219 1000222       0       0       0       0
 1000009       1 1000212 1000213 1000220 1000223       0       0       0       0
 1000010       1 1000012 1000013 1000224 1000221       0       0       0       0
 1000011       1 1000105 1000106 1000222 1000225       0       0       0       0
 1000012       1 1000211 1000212 1000223 1000226       0       0       0       0
 1000013       1 1000013 1000014 1000227 1000224       0       0       0       0
 1000014       1 1000104 1000105 1000225 1000228       0       0       0       0
 1000015       1 1000210 1000211 1000226 1000229       0       0       0       0
 1000016       1 1000014 1000015 1000230 1000227       0       0       0       0
 1000017       1 1000103 1000104 1000228 1000231       0       0       0       0
 1000018       1 1000209 1000210 1000229 1000232       0       0       0       0
 1000019       1 1000015 1000016 1000233 1000230       0       0       0       0
 1000020       1 1000102 1000103 1000231 1000234       0       0       0       0
$ ... 6380 like lines cut
*ELEMENT_MASS_PART
       9             0.0             5.0       0
*NODE
  200000           125.0         90.9836           -26.0       0       0
  200001           125.0        86.06557           -26.0       0       0
  200002           125.0        81.14754           -26.0       0       0
  200003           125.0        76.22951           -26.0       0       0
  200004           125.0        71.31148           -26.0       0       0
  200005           125.0        66.39344           -26.0       0       0
  200006           125.0        61.47541           -26.0       0       0
  200007           125.0        56.55738           -26.0       0       0
  200008           125.0        51.63934           -26.0       0       0
  200009           125.0        46.72131           -26.0       0       0
  200010           125.0        41.80328           -26.0       0       0
  200011           125.0        36.88525           -26.0       0       0
  200012           125.0        31.96721           -26.0       0       0
  200013           125.0        27.04918           -26.0       0       0
  200014           125.0        22.13115           -26.0       0       0
  200015           125.0        17.21312           -26.0       0       0
  200016           125.0        12.29508           -26.0       0       0
  200017           125.0        7.377049           -26.0       0       0
  200018           125.0        2.459016           -26.0       0       0
  200019           125.0       -2.459016           -26.0       0       0
$ ... 18426 like lines cut
*END
